<net>
  <line name="S1">
	<operation_time start="04:11" end="01:10"/> 
	<stations>
		<station journey_time="1">S+U Jannowitzbruecke</station>
		<station journey_time="2">S Lehnitz</station>
		<station journey_time="3">S Borgsdorf</station>
		<station journey_time="4">S Birkenwerder</station>
		<station journey_time="5">S+U Tegel</station>
	</stations> 
  </line>
</net>